*Heading
** Job name: Job-1-nonlinear-analysis Model name: Model-1
** Generated by: Abaqus/CAE Learning Edition 2025
*Preprint, echo=NO, model=NO, history=NO, contact=NO
**
** PARTS
**
*Part, name=Part-1
*End Part
**  
**
** ASSEMBLY
**
*Assembly, name=Assembly
**  
*Instance, name=Part-1-1, part=Part-1
*Node
      1,         -15.,          15.,           0.
      2,         -15.,          20.,           0.
      3,          15.,          20.,           0.
      4,          -5.,          15.,           0.
      5,           5.,          15.,           0.
      6,          15.,          15.,           0.
      7,           5.,         -20.,           0.
      8,          -5.,         -20.,           0.
      9,          15.,         -20.,           0.
     10,          15.,         -25.,           0.
     11,         -15.,         -25.,           0.
     12,         -15.,         -20.,           0.
     13,         -10.,          20.,           0.
     14,          -5.,          20.,           0.
     15,           0.,          20.,           0.
     16,           5.,          20.,           0.
     17,          10.,          20.,           0.
     18,         -10.,          15.,           0.
     19,           0.,          15.,           0.
     20,          10.,          15.,           0.
** ... 946 like lines cut
*Element, type=C3D8R
  1,  18,  13,   2,   1,  64,  59,  48,  47
  2,   4,  14,  13,  18,  50,  60,  59,  64
  3,  19,  15,  14,   4,  65,  61,  60,  50
  4,   5,  16,  15,  19,  51,  62,  61,  65
  5,  20,  17,  16,   5,  66,  63,  62,  51
  6,   6,   3,  17,  20,  52,  49,  63,  66
  7,  33,  41,  19,   4,  79,  87,  65,  50
  8,  41,  21,   5,  19,  87,  67,  51,  65
  9,  32,  42,  41,  33,  78,  88,  87,  79
 10,  42,  22,  21,  41,  88,  68,  67,  87
 11,  31,  43,  42,  32,  77,  89,  88,  78
 12,  43,  23,  22,  42,  89,  69,  68,  88
 13,  30,  44,  43,  31,  76,  90,  89,  77
 14,  44,  24,  23,  43,  90,  70,  69,  89
 15,  29,  45,  44,  30,  75,  91,  90,  76
 16,  45,  25,  24,  44,  91,  71,  70,  90
 17,  28,  46,  45,  29,  74,  92,  91,  75
 18,  46,  26,  25,  45,  92,  72,  71,  91
 19,   8,  27,  46,  28,  54,  73,  92,  74
 20,  27,   7,  26,  46,  73,  53,  72,  92
** ... 500 like lines cut
*Nset, nset=Set-1, generate
   1,  966,    1
*Elset, elset=Set-1, generate
   1,  520,    1
** Section: Section-1
*Solid Section, elset=Set-1, material=Material-1
,
*End Instance
**  
*Nset, nset=Set-1, instance=Part-1-1, generate
 921,  966,    1
*Elset, elset=Set-1, instance=Part-1-1, generate
 495,  520,    1
*Nset, nset=Set-2, instance=Part-1-1, generate
  1,  46,   1
*Elset, elset=Set-2, instance=Part-1-1, generate
  1,  26,   1
*End Assembly
*Amplitude, name=Amp-1, definition=EQUALLY SPACED, fixed interval=1.
             0.,              1.
** 
** MATERIALS
** 
*Material, name=Material-1
*Elastic
210000., 0.3
*Plastic
120.,0.
200.,3.
** 
** BOUNDARY CONDITIONS
** 
** Name: BC-1 Type: Symmetry/Antisymmetry/Encastre
*Boundary
Set-1, ENCASTRE
** ----------------------------------------------------------------
** 
** STEP: Step-1
** 
*Step, name=Step-1, nlgeom=YES
*Static
0.1, 1., 1e-05, 1.
** 
** BOUNDARY CONDITIONS
** 
** Name: BC-2 Type: Displacement/Rotation
*Boundary, amplitude=Amp-1
Set-2, 1, 1
Set-2, 2, 2, -30.
Set-2, 3, 3
Set-2, 4, 4
Set-2, 5, 5
Set-2, 6, 6
** 
** OUTPUT REQUESTS
** 
*Restart, write, frequency=0
** 
** FIELD OUTPUT: F-Output-1
** 
*Output, field, variable=PRESELECT
** 
** HISTORY OUTPUT: H-Output-1
** 
*Output, history, variable=PRESELECT
*End Step
