*Heading
** Job name: Job-1-composite-layup Model name: Model-1
** Generated by: Abaqus/CAE Learning Edition 2025
*Preprint, echo=NO, model=NO, history=NO, contact=NO
**
** PARTS
**
*Part, name=Part-1
*Node
      1,          40.,          50.,           0.
      2,          35.,          50.,           0.
      3,          30.,          50.,           0.
      4,          25.,          50.,           0.
      5,          20.,          50.,           0.
      6,          15.,          50.,           0.
      7,          10.,          50.,           0.
      8,           5.,          50.,           0.
      9,           0.,          50.,           0.
     10,          -5.,          50.,           0.
     11,         -10.,          50.,           0.
     12,         -15.,          50.,           0.
     13,         -20.,          50.,           0.
     14,         -25.,          50.,           0.
     15,         -30.,          50.,           0.
     16,         -35.,          50.,           0.
     17,         -40.,          50.,           0.
     18,         -45.,          50.,           0.
     19,         -50.,          50.,           0.
     20,         -55.,          50.,           0.
** ... 331 like lines cut
*Element, type=S4R
  1,   1,   2,  29,  28
  2,   2,   3,  30,  29
  3,   3,   4,  31,  30
  4,   4,   5,  32,  31
  5,   5,   6,  33,  32
  6,   6,   7,  34,  33
  7,   7,   8,  35,  34
  8,   8,   9,  36,  35
  9,   9,  10,  37,  36
 10,  10,  11,  38,  37
 11,  11,  12,  39,  38
 12,  12,  13,  40,  39
 13,  13,  14,  41,  40
 14,  14,  15,  42,  41
 15,  15,  16,  43,  42
 16,  16,  17,  44,  43
 17,  17,  18,  45,  44
 18,  18,  19,  46,  45
 19,  19,  20,  47,  46
 20,  20,  21,  48,  47
** ... 292 like lines cut
*Orientation, name=Ori-1
1., 0., 0., 0., 1., 0.
3, 0.
** Region: (CompositeLayup-1-1: Generated From Layup)
*Elset, elset=CompositeLayup-1-1, generate
   1,  312,    1
** Section: CompositeLayup-1-1
*Shell Section, elset=CompositeLayup-1-1, composite, orientation=Ori-1, layup=CompositeLayup-1, symmetric
0.3, 3, Material-1, 0., Ply-1
0.3, 3, Material-1, 45., Ply-2
0.3, 3, Material-1, -45., Ply-3
*End Part
**  
**
** ASSEMBLY
**
*Assembly, name=Assembly
**  
*Instance, name=Part-1-1, part=Part-1
*End Instance
**  
*Nset, nset=Set-1, instance=Part-1-1, generate
  27,  351,   27
*Elset, elset=Set-1, instance=Part-1-1, generate
  26,  312,   26
*Nset, nset=Set-2, instance=Part-1-1, generate
   1,  325,   27
*Elset, elset=Set-2, instance=Part-1-1, generate
   1,  287,   26
*Elset, elset=_Surf-1_E4, internal, instance=Part-1-1, generate
   1,  287,   26
*Surface, type=ELEMENT, name=Surf-1
_Surf-1_E4, E4
*End Assembly
** 
** MATERIALS
** 
*Material, name=Material-1
*Elastic, type=ENGINEERING CONSTANTS
138000.,9500.,9500., 0.28, 0.28,  0.4,5200.,5200.
1450.,
** ----------------------------------------------------------------
** 
** STEP: Step-1
** 
*Step, name=Step-1, nlgeom=NO
*Static
1., 1., 1e-05, 1.
** 
** BOUNDARY CONDITIONS
** 
** Name: BC-1 Type: Symmetry/Antisymmetry/Encastre
*Boundary
Set-1, ENCASTRE
** Name: BC-2 Type: Displacement/Rotation
*Boundary
Set-2, 2, 2
Set-2, 3, 3
Set-2, 4, 4
Set-2, 5, 5
Set-2, 6, 6
** 
** LOADS
** 
** Name: Load-1   Type: Shell edge load
*Dsload
Surf-1, EDNOR, 100.
** 
** OUTPUT REQUESTS
** 
*Restart, write, frequency=0
** 
** FIELD OUTPUT: F-Output-1
** 
*Output, field, variable=PRESELECT
** 
** HISTORY OUTPUT: H-Output-1
** 
*Output, history, variable=PRESELECT
*End Step
