*Heading
** Job name: Job-1-visco-creep Model name: Model-1
** Generated by: Abaqus/CAE Learning Edition 2025
*Preprint, echo=NO, model=NO, history=NO, contact=NO
**
** PARTS
**
*Part, name="polymer bar"
*Node
      1,        46.25,          10.
      2,        44.25,          10.
      3,        42.25,          10.
      4,        40.25,          10.
      5,        38.25,          10.
      6,        36.25,          10.
      7,        34.25,          10.
      8,        32.25,          10.
      9,        30.25,          10.
     10,        28.25,          10.
     11,        26.25,          10.
     12,        24.25,          10.
     13,        22.25,          10.
     14,        20.25,          10.
     15,        18.25,          10.
     16,        16.25,          10.
     17,        14.25,          10.
     18,        12.25,          10.
     19,        10.25,          10.
     20,         8.25,          10.
** ... 286 like lines cut
*Element, type=CPS4
  1,   1,   2,  53,  52
  2,   2,   3,  54,  53
  3,   3,   4,  55,  54
  4,   4,   5,  56,  55
  5,   5,   6,  57,  56
  6,   6,   7,  58,  57
  7,   7,   8,  59,  58
  8,   8,   9,  60,  59
  9,   9,  10,  61,  60
 10,  10,  11,  62,  61
 11,  11,  12,  63,  62
 12,  12,  13,  64,  63
 13,  13,  14,  65,  64
 14,  14,  15,  66,  65
 15,  15,  16,  67,  66
 16,  16,  17,  68,  67
 17,  17,  18,  69,  68
 18,  18,  19,  70,  69
 19,  19,  20,  71,  70
 20,  20,  21,  72,  71
** ... 230 like lines cut
*Nset, nset=Set-1, generate
   1,  306,    1
*Elset, elset=Set-1, generate
   1,  250,    1
** Section: epoxy
*Solid Section, elset=Set-1, material=Epoxy
,
*End Part
**  
**
** ASSEMBLY
**
*Assembly, name=Assembly
**  
*Instance, name="polymer bar-1", part="polymer bar"
*End Instance
**  
*Nset, nset="Left End", instance="polymer bar-1", generate
  51,  306,   51
*Elset, elset="Left End", instance="polymer bar-1", generate
  50,  250,   50
*Nset, nset=Set-1, instance="polymer bar-1", generate
   1,  256,   51
*Elset, elset=Set-1, instance="polymer bar-1", generate
   1,  201,   50
*Elset, elset=_Surf-1_S2, internal, instance="polymer bar-1", generate
  50,  250,   50
*Surface, type=ELEMENT, name=Surf-1
_Surf-1_S2, S2
*End Assembly
** 
** MATERIALS
** 
*Material, name=Epoxy
*Density
 1.18e-09,
*Elastic, moduli=INSTANTANEOUS
 4060.1, 0.37
*Viscoelastic, time=PRONY
 0.0738,        0.,     436.4
  0.147,        0.,   0.06407
 0.3134,        0., 0.0001163
 0.3786,        0., 7.321e-07
** ----------------------------------------------------------------
** 
** STEP: Step-1
** 
*Step, name=Step-1, nlgeom=NO, inc=10000
*Dynamic
0.1,3600.,1e-06
** 
** BOUNDARY CONDITIONS
** 
** Name: BC-1 Type: Displacement/Rotation
*Boundary
Set-1, 1, 1
Set-1, 2, 2
** 
** LOADS
** 
** Name: Load-1   Type: Pressure
*Dsload
Surf-1, P, -10.
** 
** OUTPUT REQUESTS
** 
*Restart, write, frequency=0
** 
** FIELD OUTPUT: F-Output-1
** 
*Output, field, variable=PRESELECT
** 
** HISTORY OUTPUT: H-Output-2
** 
*Output, history
*Node Output, nset="Left End"
UT, 
*Element Output, elset="Left End"
E11, 
** 
** HISTORY OUTPUT: H-Output-1
** 
*Output, history, variable=PRESELECT
*End Step
