*Heading
** Job name: Job-1 Model name: Model-1
** Generated by: Abaqus/CAE Learning Edition 2025
*Preprint, echo=NO, model=NO, history=NO, contact=NO
**
** PARTS
**
*Part, name=Part-1
*End Part
**  
**
** ASSEMBLY
**
*Assembly, name=Assembly
**  
*Instance, name=Part-1-1, part=Part-1
*Node
      1,   35.1315689,  0.980958343,           0.
      2,   35.0956993,  -19.0190411,           0.
      3,   46.9260483,  -18.7112141,           0.
      4,   55.0956993,  -18.7698803,           0.
      5,   55.0956993,  0.980958343,           0.
      6, -0.165385008,  0.980958343,           0.
      7, -0.0624761432,  -8.96932697,           0.
      8, -0.0828655586,  -19.0190411,           0.
      9,   35.0956993,  -29.5663223,           0.
     10,    46.304821,  -29.7521477,           0.
     11,   55.0956993,  -29.8313084,           0.
     12,  -14.9042997,  0.980958343,           0.
     13,  -14.1111498,  -6.12578869,           0.
     14,   -11.904439,  -9.04794025,           0.
     15,  -14.4542704,   -11.985095,           0.
     16,  -14.9042997,  -19.0190411,           0.
     17,   35.0956993,  -44.8403358,           0.
     18,   44.7110062,  -45.7601509,           0.
     19,   48.9638443,  -45.5566559,           0.
     20,   55.0956993,  -43.7870407,           0.
** ... 241 like lines cut
*Element, type=S4R
  1,   1,  45, 153,  59
  2,  45,  46, 154, 153
  3,  46,  47, 155, 154
  4,  47,  48, 156, 155
  5,  48,   2,  49, 156
  6,  59, 153, 157,  58
  7, 153, 154, 158, 157
  8, 154, 155, 159, 158
  9, 155, 156, 160, 159
 10, 156,  49,  50, 160
 11,  58, 157, 161,  57
 12, 157, 158, 162, 161
 13, 158, 159, 163, 162
 14, 159, 160, 164, 163
 15, 160,  50,   3, 164
 16,  57, 161, 165,  56
 17, 161, 162, 166, 165
 18, 162, 163, 167, 166
 19, 163, 164, 168, 167
 20, 164,   3,  51, 168
** ... 189 like lines cut
*Element, type=S3
210, 183, 188, 187
211, 223, 225, 224
212, 228, 230, 229
213, 115, 234, 233
214, 118, 119, 235
215,  30,  20, 111
216, 243, 245, 244
217,  30,  29, 142
218, 253, 255, 256
219, 257, 259, 258
*Nset, nset=Set-1, generate
   1,  261,    1
*Elset, elset=Set-1, generate
   1,  219,    1
** Section: Section-1
*Shell Section, elset=Set-1, material=Material-1
5., 5
*End Instance
**  
*Instance, name=Part-1-2, part=Part-1
*Node
      1,   35.1315689,  0.980958343,           0.
      2,   35.0956993,  -19.0190411,           0.
      3,   46.9260483,  -18.7112141,           0.
      4,   55.0956993,  -18.7698803,           0.
      5,   55.0956993,  0.980958343,           0.
      6, -0.165385008,  0.980958343,           0.
      7, -0.0624761432,  -8.96932697,           0.
      8, -0.0828655586,  -19.0190411,           0.
      9,   35.0956993,  -29.5663223,           0.
     10,    46.304821,  -29.7521477,           0.
     11,   55.0956993,  -29.8313084,           0.
     12,  -14.9042997,  0.980958343,           0.
     13,  -14.1111498,  -6.12578869,           0.
     14,   -11.904439,  -9.04794025,           0.
     15,  -14.4542704,   -11.985095,           0.
     16,  -14.9042997,  -19.0190411,           0.
     17,   35.0956993,  -44.8403358,           0.
     18,   44.7110062,  -45.7601509,           0.
     19,   48.9638443,  -45.5566559,           0.
     20,   55.0956993,  -43.7870407,           0.
** ... 241 like lines cut
*Element, type=S4R
  1,   1,  45, 153,  59
  2,  45,  46, 154, 153
  3,  46,  47, 155, 154
  4,  47,  48, 156, 155
  5,  48,   2,  49, 156
  6,  59, 153, 157,  58
  7, 153, 154, 158, 157
  8, 154, 155, 159, 158
  9, 155, 156, 160, 159
 10, 156,  49,  50, 160
 11,  58, 157, 161,  57
 12, 157, 158, 162, 161
 13, 158, 159, 163, 162
 14, 159, 160, 164, 163
 15, 160,  50,   3, 164
 16,  57, 161, 165,  56
 17, 161, 162, 166, 165
 18, 162, 163, 167, 166
 19, 163, 164, 168, 167
 20, 164,   3,  51, 168
** ... 189 like lines cut
*Element, type=S3
210, 183, 188, 187
211, 223, 225, 224
212, 228, 230, 229
213, 115, 234, 233
214, 118, 119, 235
215,  30,  20, 111
216, 243, 245, 244
217,  30,  29, 142
218, 253, 255, 256
219, 257, 259, 258
*Nset, nset=Set-1, generate
   1,  261,    1
*Elset, elset=Set-1, generate
   1,  219,    1
** Section: Section-1
*Shell Section, elset=Set-1, material=Material-1
5., 5
*End Instance
**  
*Nset, nset=Set-1, instance=Part-1-2
  13,  14,  15,  22,  23,  32,  97,  98, 116, 135
*Elset, elset=Set-1, instance=Part-1-2
 101, 102, 103, 115, 137, 140, 141, 163, 164, 165
*Elset, elset=_Surf-1_E2, internal, instance=Part-1-2
 152, 172, 174, 181, 194
*Elset, elset=_Surf-1_E1, internal, instance=Part-1-2
 153, 182, 198, 199
*Elset, elset=_Surf-1_E3, internal, instance=Part-1-2
 189,
*Elset, elset=_Surf-1_E4, internal, instance=Part-1-2
 207,
*Surface, type=ELEMENT, name=Surf-1
_Surf-1_E2, E2
_Surf-1_E1, E1
_Surf-1_E4, E4
_Surf-1_E3, E3
*Elset, elset=_Surf-2_E4, internal, instance=Part-1-2
 171, 173
*Elset, elset=_Surf-2_E1, internal, instance=Part-1-2
 185, 187
*Elset, elset=_Surf-2_E3, internal, instance=Part-1-2, generate
 202,  204,    1
*Elset, elset=_Surf-2_E2, internal, instance=Part-1-2
 206, 209
*Surface, type=ELEMENT, name=Surf-2
_Surf-2_E4, E4
_Surf-2_E1, E1
_Surf-2_E2, E2
_Surf-2_E3, E3
*End Assembly
** 
** MATERIALS
** 
*Material, name=Material-1
*Elastic
210000., 0.3
** ----------------------------------------------------------------
** 
** STEP: Step-1
** 
*Step, name=Step-1, nlgeom=NO
*Static
1., 1., 1e-05, 1.
** 
** BOUNDARY CONDITIONS
** 
** Name: BC-1 Type: Symmetry/Antisymmetry/Encastre
*Boundary
Set-1, ENCASTRE
** 
** LOADS
** 
** Name: Load-1   Type: Shell edge load
*Dsload
Surf-2, EDNOR, -50.
** 
** OUTPUT REQUESTS
** 
*Restart, write, frequency=0
** 
** FIELD OUTPUT: F-Output-1
** 
*Output, field, variable=PRESELECT
** 
** HISTORY OUTPUT: H-Output-1
** 
*Output, history, variable=PRESELECT
*End Step
