*Heading
** Job name: Job-1-buckling-cylinder Model name: Model-1
** Generated by: Abaqus/CAE Learning Edition 2025
*Preprint, echo=NO, model=NO, history=NO, contact=NO
**
** PARTS
**
*Part, name=Part-1
*End Part
**  
**
** ASSEMBLY
**
*Assembly, name=Assembly
**  
*Instance, name=Part-1-1, part=Part-1
*Node
      1,  -28.4334373,  -28.1343136,         100.
      2,   -33.514801,  -21.8347931,         100.
      3,  -37.2240601,  -14.6413546,         100.
      4,  -39.4093666,  -6.84849691,         100.
      5,  -39.9812469,   1.22473907,         100.
      6,  -38.9162903,   9.24783421,         100.
      7,  -36.2580948,   16.8923225,         100.
      8,    -32.11549,   23.8452358,         100.
      9,  -26.6580734,   29.8219223,         100.
     10,   -20.109272,   34.5776978,         100.
     11,   -12.737195,   37.9178581,         100.
     12,  -4.84365559,   39.7056541,         100.
     13,   3.24818397,    39.867897,         100.
     14,   11.2070427,   38.3979454,         100.
     15,   18.7070827,   35.3559761,         100.
     16,   25.4412537,   30.8665295,         100.
     17,   31.1338558,   25.1134033,         100.
     18,   35.5518341,   18.3321304,         100.
     19,   38.5143166,   10.8003387,         100.
     20,   39.9000206,   2.82638025,         100.
** ... 383 like lines cut
*Element, type=S4R
  1,  31,   1,  32,  62
  2,   1,   2,  33,  32
  3,   2,   3,  34,  33
  4,   3,   4,  35,  34
  5,   4,   5,  36,  35
  6,   5,   6,  37,  36
  7,   6,   7,  38,  37
  8,   7,   8,  39,  38
  9,   8,   9,  40,  39
 10,   9,  10,  41,  40
 11,  10,  11,  42,  41
 12,  11,  12,  43,  42
 13,  12,  13,  44,  43
 14,  13,  14,  45,  44
 15,  14,  15,  46,  45
 16,  15,  16,  47,  46
 17,  16,  17,  48,  47
 18,  17,  18,  49,  48
 19,  18,  19,  50,  49
 20,  19,  20,  51,  50
** ... 352 like lines cut
*Nset, nset=Set-1, generate
   1,  403,    1
*Elset, elset=Set-1, generate
   1,  372,    1
** Section: Section-1
*Shell Section, elset=Set-1, material=Material-1
1., 5
*End Instance
**  
*Node
      1,           0., -2.4492936e-15,         100.
*Nset, nset=Set-1, instance=Part-1-1, generate
 373,  403,    1
*Elset, elset=Set-1, instance=Part-1-1, generate
 342,  372,    1
*Nset, nset=Set-4
 1,
*Nset, nset=Set-5, instance=Part-1-1
 31,
*Nset, nset=_PickedSet8, internal
 1,
*End Assembly
** 
** MATERIALS
** 
*Material, name=Material-1
*Elastic
210000., 0.3
** ----------------------------------------------------------------
** 
** STEP: Step-1
** 
*Step, name=Step-1, nlgeom=NO, perturbation
*Buckle
6, , 12, 300
** 
** BOUNDARY CONDITIONS
** 
** Name: BC-1 Type: Displacement/Rotation
*Boundary, op=NEW, load case=1
Set-1, 1, 1
Set-1, 2, 2
Set-1, 3, 3
Set-1, 4, 4
Set-1, 5, 5
Set-1, 6, 6
*Boundary, op=NEW, load case=2
Set-1, 1, 1
Set-1, 2, 2
Set-1, 3, 3
Set-1, 4, 4
Set-1, 5, 5
Set-1, 6, 6
** 
** LOADS
** 
** Name: Load-1   Type: Concentrated force
*Cload
Set-5, 2, -1.
Set-5, 3, 0.
** 
** OUTPUT REQUESTS
** 
*Restart, write, frequency=0
** 
** FIELD OUTPUT: F-Output-1
** 
*Output, field, variable=PRESELECT
*End Step
