*Heading
** Job name: Job-1-crack Model name: Model-1
** Generated by: Abaqus/CAE Learning Edition 2025
*Preprint, echo=NO, model=NO, history=NO, contact=NO
**
** PARTS
**
*Part, name=Part-1
*End Part
**  
**
** ASSEMBLY
**
*Assembly, name=Assembly
**  
*Instance, name=Part-1-1, part=Part-1
*Node
      1,          25.,          25.
      2,         -25.,          25.
      3,         -25.,           0.
      4,  -7.11494255,           0.
      5,  -3.52999997,  -6.17749977
      6,         -25.,         -25.
      7,          25.,         -25.
      8,   -4.4124999,           0.
      9,           0.,           0.
     10,  -2.64750004,  -3.52999997
     11,          20.,          25.
     12,          15.,          25.
     13,          10.,          25.
     14,           5.,          25.
     15,           0.,          25.
     16,          -5.,          25.
     17,         -10.,          25.
     18,         -15.,          25.
     19,         -20.,          25.
     20,         -25.,          20.
** ... 132 like lines cut
*Element, type=CPS3
1, 117, 109, 135
2,  81,  35,  78
3, 146, 107, 123
4, 134, 120, 119
5, 126, 120, 142
116, 150,   8,  56
117, 148,  61,  62
118, 149,  59,  60
119, 151,  10,  57
120, 150,   9,   8
*Element, type=CPS4R
  6, 137, 136, 101,  95
  7,  69,  20,  21,  86
  8,  64,  27,  95, 101
  9, 102,  24,  25,  67
 10, 108,  71,  84, 146
 11,  13,  83,  72,  12
 12,  92,  53,  54, 104
 13,  52,  73,  74,  51
 14,  82, 121, 134, 119
 15,  82,  48,  49,  90
 16,  75,  47,  48,  82
 17, 103,  76,  44,  45
 18,  88,  42,  43,  89
 19,  41,  77,  87,  40
 20,  39,  79,  80,  38
 21,   5,  33,  63, 140
 22,  26,  25,  65, 100
 23,   4,  26, 100,  33
 24,  66,  65,  25,  24
 25,  14,  71,  83,  13
** ... 106 like lines cut
*Nset, nset=Set-1, generate
   1,  152,    1
*Elset, elset=Set-1, generate
   1,  136,    1
** Section: Section-1
*Solid Section, elset=Set-1, material=Material-1
,
*End Instance
**  
*Instance, name=Part-1-2, part=Part-1
*Node
      1,          25.,          25.
      2,         -25.,          25.
      3,         -25.,           0.
      4,  -7.11494255,           0.
      5,  -3.52999997,  -6.17749977
      6,         -25.,         -25.
      7,          25.,         -25.
      8,          25.,           0.
      9,   -4.4124999,           0.
     10,           0.,           0.
     11,  -2.64750004,  -3.52999997
     12,          20.,          25.
     13,          15.,          25.
     14,          10.,          25.
     15,           5.,          25.
     16,           0.,          25.
     17,          -5.,          25.
     18,         -10.,          25.
     19,         -15.,          25.
     20,         -20.,          25.
** ... 138 like lines cut
*Element, type=CPS3
1, 119, 109, 135
2,  83,  36,  80
3, 146, 107, 124
4, 127, 122, 142
5, 134, 122, 121
116, 148,  61,  62
117, 149,  59,  60
118, 151,  11,  57
*Element, type=CPS4R
  6, 137, 136, 101,  95
  7,  69,  21,  22,  87
  8,  64,  28,  95, 101
  9, 102, 157, 156,  67
 10, 108,  71,  85, 146
 11,  14,  84,  72,  13
 12,  74,  53,  54, 104
 13,  74,  73,  52,  53
 14,  52,  73,  75,   8
 15,  76, 120, 116,  91
 16,  51,  92,  76,  50
 17,  77,  48,  49,  91
 18, 103,  78,  45,  46
 19,  89,  43,  44,  90
 20,  42,  79,  88,  41
 21,  40,  81,  82,  39
 22,   5,  34,  63, 140
 23,  66,  65,  26,  25
 24,  27,  26,  65, 100
 25,   4,  27, 100,  34
** ... 108 like lines cut
*Nset, nset=Set-1, generate
   1,  158,    1
*Elset, elset=Set-1, generate
   1,  136,    1
** Section: Section-1
*Solid Section, elset=Set-1, material=Material-1
,
*End Instance
**  
*Nset, nset=Set-1, instance=Part-1-2
 8,
*Nset, nset=Set-6, instance=Part-1-2
   3,   4,   9,  10,  25,  26,  27, 153, 154, 155, 156, 157, 158
*Elset, elset=Set-6, instance=Part-1-2
   9,  23,  24,  25,  33,  35,  36,  38, 119, 126, 134, 136
*Nset, nset=_PickedSet10, internal, instance=Part-1-2
   9,  10, 153
*Elset, elset=_PickedSet10, internal, instance=Part-1-2
 119, 136
*Nset, nset=_PickedSet11, internal, instance=Part-1-2
 9,
*Elset, elset=_Surf-1_S4, internal, instance=Part-1-2
 11, 26, 28, 50, 59
*Elset, elset=_Surf-1_S3, internal, instance=Part-1-2
 31,
*Elset, elset=_Surf-1_S2, internal, instance=Part-1-2
 52, 57, 58, 61
*Surface, type=ELEMENT, name=Surf-1
_Surf-1_S4, S4
_Surf-1_S3, S3
_Surf-1_S2, S2
*Elset, elset=_Surf-2_S3, internal, instance=Part-1-2
 18, 46
*Elset, elset=_Surf-2_S2, internal, instance=Part-1-2
 19,
*Elset, elset=_Surf-2_S4, internal, instance=Part-1-2
 20, 21, 40, 41, 43, 44, 68
*Surface, type=ELEMENT, name=Surf-2
_Surf-2_S3, S3
_Surf-2_S2, S2
_Surf-2_S4, S4
*End Assembly
** 
** MATERIALS
** 
*Material, name=Material-1
*Elastic
207000., 0.3
** ----------------------------------------------------------------
** 
** STEP: Step-1
** 
*Step, name=Step-1, nlgeom=NO
*Static
1., 1., 1e-05, 1.
** 
** BOUNDARY CONDITIONS
** 
** Name: BC-1 Type: Displacement/Rotation
*Boundary
Set-1, 1, 1
Set-1, 2, 2
Set-1, 6, 6
** 
** LOADS
** 
** Name: Load-1   Type: Pressure
*Dsload
Surf-1, P, -200.
** Name: Load-2   Type: Pressure
*Dsload
Surf-2, P, -200.
** 
** OUTPUT REQUESTS
** 
*Restart, write, frequency=0
** 
** FIELD OUTPUT: F-Output-1
** 
*Output, field, variable=PRESELECT
** 
** HISTORY OUTPUT: H-Output-1
** 
*Output, history, variable=PRESELECT
*End Step
