*Heading
** Job name: Job-1-bimetallic Model name: Model-1
** Generated by: Abaqus/CAE Learning Edition 2025
*Preprint, echo=NO, model=NO, history=NO, contact=NO
**
** PARTS
**
*Part, name="bimetallic strip"
*Node
      1,          20.,          0.5
      2,           0.,          0.5
      3,           0.,         -0.5
      4,          20.,         -0.5
      5,          20.,          1.5
      6,           0.,          1.5
      7,   19.6000004,          0.5
      8,   19.2000008,          0.5
      9,   18.7999992,          0.5
     10,   18.3999996,          0.5
     11,          18.,          0.5
     12,   17.6000004,          0.5
     13,   17.2000008,          0.5
     14,   16.7999992,          0.5
     15,   16.3999996,          0.5
     16,          16.,          0.5
     17,   15.6000004,          0.5
     18,   15.1999998,          0.5
     19,   14.8000002,          0.5
     20,   14.3999996,          0.5
** ... 337 like lines cut
*Element, type=CPS4R
  1,   1,   7, 162, 108
  2,   7,   8, 163, 162
  3,   8,   9, 164, 163
  4,   9,  10, 165, 164
  5,  10,  11, 166, 165
  6,  11,  12, 167, 166
  7,  12,  13, 168, 167
  8,  13,  14, 169, 168
  9,  14,  15, 170, 169
 10,  15,  16, 171, 170
 11,  16,  17, 172, 171
 12,  17,  18, 173, 172
 13,  18,  19, 174, 173
 14,  19,  20, 175, 174
 15,  20,  21, 176, 175
 16,  21,  22, 177, 176
 17,  22,  23, 178, 177
 18,  23,  24, 179, 178
 19,  24,  25, 180, 179
 20,  25,  26, 181, 180
** ... 280 like lines cut
*Nset, nset=Set-1
   1,   2,   5,   6,   7,   8,   9,  10,  11,  12,  13,  14,  15,  16,  17,  18
  19,  20,  21,  22,  23,  24,  25,  26,  27,  28,  29,  30,  31,  32,  33,  34
  35,  36,  37,  38,  39,  40,  41,  42,  43,  44,  45,  46,  47,  48,  49,  50
  51,  52,  53,  54,  55, 109, 110, 111, 112, 113, 114, 115, 116, 117, 118, 119
 120, 121, 122, 123, 124, 125, 126, 127, 128, 129, 130, 131, 132, 133, 134, 135
 136, 137, 138, 139, 140, 141, 142, 143, 144, 145, 146, 147, 148, 149, 150, 151
 152, 153, 154, 155, 156, 157, 158, 159, 160, 161, 260, 261, 262, 263, 264, 265
 266, 267, 268, 269, 270, 271, 272, 273, 274, 275, 276, 277, 278, 279, 280, 281
 282, 283, 284, 285, 286, 287, 288, 289, 290, 291, 292, 293, 294, 295, 296, 297
 298, 299, 300, 301, 302, 303, 304, 305, 306, 307, 308, 309, 310, 311, 312, 313
 314, 315, 316, 317, 318, 319, 320, 321, 322, 323, 324, 325, 326, 327, 328, 329
 330, 331, 332, 333, 334, 335, 336, 337, 338, 339, 340, 341, 342, 343, 344, 345
 346, 347, 348, 349, 350, 351, 352, 353, 354, 355, 356, 357
*Elset, elset=Set-1, generate
 151,  300,    1
*Nset, nset=Set-2
   1,   2,   3,   4,   7,   8,   9,  10,  11,  12,  13,  14,  15,  16,  17,  18
  19,  20,  21,  22,  23,  24,  25,  26,  27,  28,  29,  30,  31,  32,  33,  34
  35,  36,  37,  38,  39,  40,  41,  42,  43,  44,  45,  46,  47,  48,  49,  50
  51,  52,  53,  54,  55,  56,  57,  58,  59,  60,  61,  62,  63,  64,  65,  66
  67,  68,  69,  70,  71,  72,  73,  74,  75,  76,  77,  78,  79,  80,  81,  82
  83,  84,  85,  86,  87,  88,  89,  90,  91,  92,  93,  94,  95,  96,  97,  98
  99, 100, 101, 102, 103, 104, 105, 106, 107, 108, 162, 163, 164, 165, 166, 167
 168, 169, 170, 171, 172, 173, 174, 175, 176, 177, 178, 179, 180, 181, 182, 183
 184, 185, 186, 187, 188, 189, 190, 191, 192, 193, 194, 195, 196, 197, 198, 199
 200, 201, 202, 203, 204, 205, 206, 207, 208, 209, 210, 211, 212, 213, 214, 215
 216, 217, 218, 219, 220, 221, 222, 223, 224, 225, 226, 227, 228, 229, 230, 231
 232, 233, 234, 235, 236, 237, 238, 239, 240, 241, 242, 243, 244, 245, 246, 247
 248, 249, 250, 251, 252, 253, 254, 255, 256, 257, 258, 259
*Elset, elset=Set-2, generate
   1,  150,    1
** Section: iron
*Solid Section, elset=Set-2, material=iron
,
** Section: brass
*Solid Section, elset=Set-1, material=brass
,
*End Part
**  
**
** ASSEMBLY
**
*Assembly, name=Assembly
**  
*Instance, name="bimetallic strip-1", part="bimetallic strip"
*End Instance
**  
*Nset, nset=Set-1, instance="bimetallic strip-1"
   2,   3,   6,  56,  57, 160, 161
*Elset, elset=Set-1, instance="bimetallic strip-1"
  50, 100, 150, 151, 201, 251
*Nset, nset=Set-2, instance="bimetallic strip-1", generate
   1,  357,    1
*Elset, elset=Set-2, instance="bimetallic strip-1", generate
   1,  300,    1
*End Assembly
** 
** MATERIALS
** 
*Material, name=brass
*Elastic
100000., 0.33
*Expansion
19.,
*Material, name=iron
*Elastic
200000., 0.3
*Expansion
12.,
** 
** PREDEFINED FIELDS
** 
** Name: Predefined Field-1   Type: Temperature
*Initial Conditions, type=TEMPERATURE
Set-2, 300.
** ----------------------------------------------------------------
** 
** STEP: Step-1
** 
*Step, name=Step-1, nlgeom=NO
*Static
1., 1., 1e-05, 1.
** 
** BOUNDARY CONDITIONS
** 
** Name: BC-1 Type: Displacement/Rotation
*Boundary
Set-1, 1, 1
Set-1, 2, 2
** 
** PREDEFINED FIELDS
** 
** Name: Predefined Field-1   Type: Temperature
*Temperature
Set-2, 600.
** 
** OUTPUT REQUESTS
** 
*Restart, write, frequency=0
** 
** FIELD OUTPUT: F-Output-1
** 
*Output, field, variable=PRESELECT
** 
** HISTORY OUTPUT: H-Output-1
** 
*Output, history, variable=PRESELECT
*End Step
