*Heading
** Job name: Job-1-beam Model name: Model-1
** Generated by: Abaqus/CAE Learning Edition 2025
*Preprint, echo=NO, model=NO, history=NO, contact=NO
**
** PARTS
**
*Part, name=Beam
*Node
      1,         -10.,          25.,           0.
      2,         -35.,          25.,           0.
      3,          15.,          25.,           0.
      4,          15.,          20.,           0.
      5,          -5.,          20.,           0.
      6,          -5.,         -20.,           0.
      7,          15.,         -20.,           0.
      8,          15.,         -25.,           0.
      9,         -10.,         -25.,           0.
     10,         -35.,         -25.,           0.
     11,         -35.,         -20.,           0.
     12,         -15.,         -20.,           0.
     13,         -15.,          20.,           0.
     14,         -35.,          20.,           0.
     15,   -18.333334,          25.,           0.
     16,   -26.666666,          25.,           0.
     17,  -1.66666663,          25.,           0.
     18,   6.66666651,          25.,           0.
     19,           5.,          20.,           0.
     20,          -5.,          10.,           0.
** ... 757 like lines cut
*Element, type=C3D8R
  1,  32,  16,   2,  14,  69,  53,  39,  51
  2,  13,  15,  16,  32,  50,  52,  53,  69
  3,  33,   5,  17,   1,  70,  42,  54,  38
  4,   5,  19,  18,  17,  42,  56,  55,  54
  5,   6,  25,  24,  23,  43,  62,  61,  60
  6,   8,   7,  23,  24,  45,  44,  60,  61
  7,  27,   9,  37,  12,  64,  46,  74,  49
  8,   5,  33,  34,  20,  42,  70,  71,  57
  9,  10,  26,  28,  11,  47,  63,  65,  48
 10,  13,  29,  34,  33,  50,  66,  71,  70
 11,  33,   1,  15,  13,  70,  38,  52,  50
 12,   3,  18,  19,   4,  40,  55,  56,  41
 13,  21,  35,  36,  22,  58,  72,  73,  59
 14,  30,  31,  36,  35,  67,  68,  73,  72
 15,  37,   6,  22,  36,  74,  43,  59,  73
 16,  37,   9,  25,   6,  74,  46,  62,  43
 17,  12,  28,  26,  27,  49,  65,  63,  64
 18,  35,  34,  29,  30,  72,  71,  66,  67
 19,  35,  21,  20,  34,  72,  58,  57,  71
 20,  37,  36,  31,  12,  74,  73,  68,  49
** ... 380 like lines cut
*Nset, nset=Set-1, generate
   1,  777,    1
*Elset, elset=Set-1, generate
   1,  400,    1
** Section: Section-1
*Solid Section, elset=Set-1, material=Material-1
,
*End Part
**  
**
** ASSEMBLY
**
*Assembly, name=Assembly
**  
*Instance, name=Beam-1, part=Beam
*End Instance
**  
*Nset, nset=Set-1, instance=Beam-1, generate
  1,  37,   1
*Elset, elset=Set-1, instance=Beam-1, generate
  1,  20,   1
*Nset, nset=Set-2, instance=Beam-1
 741,
*Elset, elset=_Surf-1_S4, internal, instance=Beam-1
   1,   2,  11,  21,  22,  31,  41,  42,  51,  61,  62,  71,  81,  82,  91, 101
 102, 111, 121, 122, 131, 141, 142, 151, 161, 162, 171, 181, 182, 191, 201, 202
 211, 221, 222, 231, 241, 242, 251, 261, 262, 271, 281, 282, 291, 301, 302, 311
 321, 322, 331, 341, 342, 351, 361, 362, 371, 381, 382, 391
*Elset, elset=_Surf-1_S5, internal, instance=Beam-1
   3,   4,  23,  24,  43,  44,  63,  64,  83,  84, 103, 104, 123, 124, 143, 144
 163, 164, 183, 184, 203, 204, 223, 224, 243, 244, 263, 264, 283, 284, 303, 304
 323, 324, 343, 344, 363, 364, 383, 384
*Elset, elset=_Surf-1_S3, internal, instance=Beam-1, generate
  12,  392,   20
*Surface, type=ELEMENT, name=Surf-1
_Surf-1_S4, S4
_Surf-1_S5, S5
_Surf-1_S3, S3
*End Assembly
** 
** MATERIALS
** 
*Material, name=Material-1
*Elastic
70000., 0.3
** ----------------------------------------------------------------
** 
** STEP: Step-1
** 
*Step, name=Step-1, nlgeom=NO
*Static
1., 1., 1e-05, 1.
** 
** BOUNDARY CONDITIONS
** 
** Name: BC-1 Type: Symmetry/Antisymmetry/Encastre
*Boundary
Set-1, ENCASTRE
** 
** LOADS
** 
** Name: force_side   Type: Concentrated force
*Cload
Set-2, 1, 0.
Set-2, 2, 0.
Set-2, 3, 200.
** Name: pressure_top   Type: Pressure
*Dsload
Surf-1, P, 100.
** 
** OUTPUT REQUESTS
** 
*Restart, write, frequency=0
** 
** FIELD OUTPUT: F-Output-1
** 
*Output, field, variable=PRESELECT
** 
** HISTORY OUTPUT: H-Output-1
** 
*Output, history, variable=PRESELECT
*End Step
