*Heading
** Job name: Job-1-plate-multiple-holes Model name: Model-1
** Generated by: Abaqus/CAE Learning Edition 2025
*Preprint, echo=NO, model=NO, history=NO, contact=NO
**
** PARTS
**
*Part, name=Part-1
*Node
      1,          -5.,          12.,           0.
      2,          -5.,           0.,           0.
      3,         -25.,           0.,           0.
      4,         -25.,          25.,           0.
      5,          -5.,          25.,           0.
      6,          -5.,          18.,           0.
      7,         -25.,           0.,           3.
      8,          -5.,           0.,           3.
      9,          -5.,          12.,           3.
     10,          -5.,          18.,           3.
     11,          -5.,          25.,           3.
     12,         -25.,          25.,           3.
     13,          -5.,         -25.,           0.
     14,         -25.,         -25.,           0.
     15,          -5.,          -8.,           0.
     16,  -6.54348707,  -7.57247877,           0.
     17,          -5.,          -2.,           0.
     18,         -25.,         -25.,           3.
     19,          -5.,         -25.,           3.
     20,          -5.,          -8.,           3.
** ... 726 like lines cut
*Element, type=C3D8R
 1, 291, 296,  43,  42, 355, 360, 103, 104
 2, 296, 277,  44,  43, 360, 341, 102, 103
 3, 290, 297, 296, 291, 354, 361, 360, 355
 4, 297, 278, 277, 296, 361, 342, 341, 360
 5, 289, 298, 297, 290, 353, 362, 361, 354
 6, 298, 279, 278, 297, 362, 343, 342, 361
 7, 288, 299, 298, 289, 352, 363, 362, 353
 8, 299, 280, 279, 298, 363, 344, 343, 362
 9, 287, 300, 299, 288, 351, 364, 363, 352
10, 300, 281, 280, 299, 364, 345, 344, 363
11, 286, 301, 300, 287, 350, 365, 364, 351
12, 301, 282, 281, 300, 365, 346, 345, 364
13, 284, 285, 301, 286, 348, 349, 365, 350
14, 285, 283, 282, 301, 349, 347, 346, 365
15, 285,  62,  61, 283, 349,  84,  85, 347
16, 284,  63,  62, 285, 348,  83,  84, 349
17, 284, 293,  64,  63, 348, 357,  82,  83
18, 293, 292,  65,  64, 357, 356,  81,  82
19, 292,  66,   1,  65, 356,  80,   9,  81
20, 292, 302,  67,  66, 356, 366,  79,  80
** ... 300 like lines cut
*Nset, nset=Set-1, generate
   1,  746,    1
*Elset, elset=Set-1, generate
   1,  320,    1
** Section: Section-1
*Solid Section, elset=Set-1, material=Material-1
,
*End Part
**  
**
** ASSEMBLY
**
*Assembly, name=Assembly
**  
*Instance, name=Part-1-1, part=Part-1
*End Instance
**  
*Nset, nset=Set-1, instance=Part-1-1
  23,  25,  26,  27,  29,  30, 191, 192, 193, 194, 195, 196, 197, 198, 207, 208
 209, 210, 211, 212, 213, 214, 231, 232, 233, 234, 235, 236, 237, 238, 269, 270
 271, 272, 273, 274, 275, 276
*Elset, elset=Set-1, instance=Part-1-1
 174, 180, 181, 182, 205, 206, 207, 208, 248, 255, 262, 269, 292, 295, 298, 301
 304, 307
*Nset, nset=Set-2, instance=Part-1-1
   3,   4,   7,  12,  14,  18,  40,  41,  42,  43,  44,  45,  46,  47,  99, 100
 101, 102, 103, 104, 105, 106, 129, 130, 131, 132, 133, 134, 135, 136, 137, 138
 139, 140, 141, 142, 143, 144
*Elset, elset=Set-2, instance=Part-1-1
   1,   2,  29,  30,  31,  61,  67,  73,  74,  86,  93, 100, 119, 120, 121, 122
 123, 124
*Nset, nset=Set-3, instance=Part-1-1
   3,   4,   7,  12,  14,  18,  40,  41,  42,  43,  44,  45,  46,  47,  99, 100
 101, 102, 103, 104, 105, 106, 129, 130, 131, 132, 133, 134, 135, 136, 137, 138
 139, 140, 141, 142, 143, 144
*Elset, elset=Set-3, instance=Part-1-1
   1,   2,  29,  30,  31,  61,  67,  73,  74,  86,  93, 100, 119, 120, 121, 122
 123, 124
*End Assembly
** 
** MATERIALS
** 
*Material, name=Material-1
*Elastic
210000., 0.3
** 
** BOUNDARY CONDITIONS
** 
** Name: BC-1 Type: Symmetry/Antisymmetry/Encastre
*Boundary
Set-1, ENCASTRE
** ----------------------------------------------------------------
** 
** STEP: Step-1
** 
*Step, name=Step-1, nlgeom=NO
*Static
1., 1., 1e-05, 1.
** 
** BOUNDARY CONDITIONS
** 
** Name: BC-2 Type: Displacement/Rotation
*Boundary
Set-3, 1, 1, -4.
** 
** OUTPUT REQUESTS
** 
*Restart, write, frequency=0
** 
** FIELD OUTPUT: F-Output-1
** 
*Output, field, variable=PRESELECT
** 
** HISTORY OUTPUT: H-Output-1
** 
*Output, history, variable=PRESELECT
*End Step
