*Heading
** Job name: Job-2-submodel Model name: submodel
** Generated by: Abaqus/CAE Learning Edition 2025
*Preprint, echo=NO, model=NO, history=NO, contact=NO
**
** PARTS
**
*Part, name=Part-1
*Node
      1,         -35.,          25.,          20.
      2,   -31.666666,          25.,          20.
      3,   -28.333334,          25.,          20.
      4,         -25.,          25.,          20.
      5,         -35.,          25.,          16.
      6,   -31.666666,          25.,          16.
      7,   -28.333334,          25.,          16.
      8,         -25.,          25.,          16.
      9,         -35.,          25.,          12.
     10,   -31.666666,          25.,          12.
     11,   -28.333334,          25.,          12.
     12,         -25.,          25.,          12.
     13,         -35.,          25.,           8.
     14,   -31.666666,          25.,           8.
     15,   -28.333334,          25.,           8.
     16,         -25.,          25.,           8.
     17,         -35.,          25.,           4.
     18,   -31.666666,          25.,           4.
     19,   -28.333334,          25.,           4.
     20,         -25.,          25.,           4.
** ... 148 like lines cut
*Element, type=C3D8R
 1,  25,  26,  30,  29,   1,   2,   6,   5
 2,  26,  27,  31,  30,   2,   3,   7,   6
 3,  27,  28,  32,  31,   3,   4,   8,   7
 4,  29,  30,  34,  33,   5,   6,  10,   9
 5,  30,  31,  35,  34,   6,   7,  11,  10
 6,  31,  32,  36,  35,   7,   8,  12,  11
 7,  33,  34,  38,  37,   9,  10,  14,  13
 8,  34,  35,  39,  38,  10,  11,  15,  14
 9,  35,  36,  40,  39,  11,  12,  16,  15
10,  37,  38,  42,  41,  13,  14,  18,  17
11,  38,  39,  43,  42,  14,  15,  19,  18
12,  39,  40,  44,  43,  15,  16,  20,  19
13,  41,  42,  46,  45,  17,  18,  22,  21
14,  42,  43,  47,  46,  18,  19,  23,  22
15,  43,  44,  48,  47,  19,  20,  24,  23
16,  49,  50,  54,  53,  25,  26,  30,  29
17,  50,  51,  55,  54,  26,  27,  31,  30
18,  51,  52,  56,  55,  27,  28,  32,  31
19,  53,  54,  58,  57,  29,  30,  34,  33
20,  54,  55,  59,  58,  30,  31,  35,  34
** ... 70 like lines cut
*Nset, nset=Set-1, generate
   1,  168,    1
*Elset, elset=Set-1, generate
  1,  90,   1
** Section: Section-1
*Solid Section, elset=Set-1, material=Material-1
,
*End Part
**  
**
** ASSEMBLY
**
*Assembly, name=Assembly
**  
*Instance, name=Part-1-1, part=Part-1
*End Instance
**  
*Nset, nset=Set-1, instance=Part-1-1, generate
  1,  24,   1
*Elset, elset=Set-1, instance=Part-1-1, generate
  1,  15,   1
*Nset, nset=Set-2, instance=Part-1-1, generate
 145,  168,    1
*Elset, elset=Set-2, instance=Part-1-1, generate
 76,  90,   1
*Submodel, type=NODE, exteriorTolerance=0.05
Set-2, 
*End Assembly
** 
** MATERIALS
** 
*Material, name=Material-1
*Elastic
200000., 0.3
** ----------------------------------------------------------------
** 
** STEP: Step-1
** 
*Step, name=Step-1, nlgeom=NO
*Static
1., 1., 1e-05, 1.
** 
** BOUNDARY CONDITIONS
** 
** Name: BC-1 Type: Displacement/Rotation
*Boundary
Set-1, 1, 1
Set-1, 2, 2
Set-1, 3, 3
** Name: BC-2 Type: Submodel
*Boundary, submodel, step=1
Set-2, 1, 1
Set-2, 2, 2
Set-2, 3, 3
** 
** OUTPUT REQUESTS
** 
*Restart, write, frequency=0
** 
** FIELD OUTPUT: F-Output-1
** 
*Output, field, variable=PRESELECT
** 
** HISTORY OUTPUT: H-Output-1
** 
*Output, history, variable=PRESELECT
*End Step
