*Heading
** Job name: Job-1-globalmodel Model name: Model-1
** Generated by: Abaqus/CAE Learning Edition 2025
*Preprint, echo=NO, model=NO, history=NO, contact=NO
**
** PARTS
**
*Part, name=Part-1
*Node
      1,         -25.,          25.,           0.
      2,         -35.,          25.,           0.
      3,         -25.,           0.,           0.
      4,          35.,           0.,           0.
      5,          35.,         -10.,           0.
      6,         -25.,         -10.,           0.
      7,         -35.,         -10.,           0.
      8,         -30.,          25.,           0.
      9,         -25.,           5.,           0.
     10,         -25.,          10.,           0.
     11,         -25.,          15.,           0.
     12,         -25.,          20.,           0.
     13,          30.,           0.,           0.
     14,          25.,           0.,           0.
     15,          20.,           0.,           0.
     16,          15.,           0.,           0.
     17,          10.,           0.,           0.
     18,           5.,           0.,           0.
     19,           0.,           0.,           0.
     20,          -5.,           0.,           0.
** ... 280 like lines cut
*Element, type=C3D8R
  1,   1,   8,  49,  12,  61,  68, 109,  72
  2,  43,  47,  39,  40, 103, 107,  99, 100
  3,   7,  36,  44,  42,  67,  96, 104, 102
  4,  59,  44,  45,   3, 119, 104, 105,  63
  5,  46,  54,  29,  30, 106, 114,  89,  90
  6,  44,  59,  41,  42, 104, 119, 101, 102
  7,  10,  47,  43,   9,  70, 107, 103,  69
  8,  11,  48,  47,  10,  71, 108, 107,  70
  9,  12,  49,  48,  11,  72, 109, 108,  71
 10,  13,  60,  24,   4,  73, 120,  84,  64
 11,  14,  50,  60,  13,  74, 110, 120,  73
 12,  50,  51,  33,  34, 110, 111,  93,  94
 13,  15,  51,  50,  14,  75, 111, 110,  74
 14,  16,  52,  51,  15,  76, 112, 111,  75
 15,  31,  32,  52,  53,  91,  92, 112, 113
 16,  19,  54,  46,  18,  79, 114, 106,  78
 17,  20,  55,  54,  19,  80, 115, 114,  79
 18,  21,  56,  55,  20,  81, 116, 115,  80
 19,  22,  57,  56,  21,  82, 117, 116,  81
 20,  25,  26,  57,  58,  85,  86, 117, 118
** ... 132 like lines cut
*Nset, nset=Set-1, generate
   1,  300,    1
*Elset, elset=Set-1, generate
   1,  152,    1
** Section: Section-1
*Solid Section, elset=Set-1, material=Material-1
,
*End Part
**  
**
** ASSEMBLY
**
*Assembly, name=Assembly
**  
*Instance, name=Part-1-1, part=Part-1
*End Instance
**  
*Nset, nset=Set-1, instance=Part-1-1
   1,   2,   8,  61,  62,  68, 121, 122, 128, 181, 182, 188, 241, 242, 248
*Elset, elset=Set-1, instance=Part-1-1
   1,  30,  39,  68,  77, 106, 115, 144
*Elset, elset=_Surf-1_S6, internal, instance=Part-1-1
  10,  11,  13,  14,  16,  17,  18,  19,  48,  49,  51,  52,  54,  55,  56,  57
  86,  87,  89,  90,  92,  93,  94,  95, 124, 125, 127, 128, 130, 131, 132, 133
*Elset, elset=_Surf-1_S4, internal, instance=Part-1-1
  35,  36,  37,  38,  73,  74,  75,  76, 111, 112, 113, 114, 149, 150, 151, 152
*Surface, type=ELEMENT, name=Surf-1
_Surf-1_S6, S6
_Surf-1_S4, S4
*End Assembly
** 
** MATERIALS
** 
*Material, name=Material-1
*Elastic
200000., 0.3
** ----------------------------------------------------------------
** 
** STEP: Step-1
** 
*Step, name=Step-1, nlgeom=NO
*Static
1., 1., 1e-05, 1.
** 
** BOUNDARY CONDITIONS
** 
** Name: BC-1 Type: Displacement/Rotation
*Boundary
Set-1, 1, 1
Set-1, 2, 2
Set-1, 3, 3
** 
** LOADS
** 
** Name: Load-1   Type: Pressure
*Dsload
Surf-1, P, 100.
** 
** OUTPUT REQUESTS
** 
*Restart, write, frequency=0
** 
** FIELD OUTPUT: F-Output-1
** 
*Output, field, variable=PRESELECT
** 
** HISTORY OUTPUT: H-Output-1
** 
*Output, history, variable=PRESELECT
*End Step
