*Heading
** Job name: Job-1-contact-press Model name: Model-1
** Generated by: Abaqus/CAE Learning Edition 2025
*Preprint, echo=NO, model=NO, history=NO, contact=NO
**
** PARTS
**
*Part, name=Part-1
*Node
      1,          24.,         -14.,          10.
      2,          12.,         -14.,          10.
      3,          12.,         -15.,          10.
      4,          25.,         -15.,          10.
      5,          25.,          -5.,          10.
      6,          12.,          -5.,          10.
      7,          12.,          -6.,          10.
      8,          24.,          -6.,          10.
      9,          12.,         -15.,           0.
     10,          12.,         -14.,           0.
     11,          24.,         -14.,           0.
     12,          24.,          -6.,           0.
     13,          12.,          -6.,           0.
     14,          12.,          -5.,           0.
     15,          25.,          -5.,           0.
     16,          25.,         -15.,           0.
     17,          12.,         -15.,          50.
     18,          12.,         -14.,          50.
     19,          24.,         -14.,          50.
     20,          24.,          -6.,          50.
** ... 240 like lines cut
*Element, type=C3D8R
1,   1,  61,   3,   2,  11,  64,   9,  10
2,  61,   1, 177,   4,  64,  11, 179,  16
3,   6,  62,   8,   7,  14,  63,  12,  13
4, 178, 177,   1,   8, 180, 179,  11,  12
5,   5, 178,   8,  62,  15, 180,  12,  63
6, 177, 178,   5,   4, 179, 180,  15,  16
 7,   1,   2,   3,  61,  89,  93,  72, 183
 8,  61,   4, 177,   1, 183,  65, 229,  89
 9,   6,   7,   8,  62,  77,  84,  85, 187
10, 178,   8,   1, 177, 230,  85,  89, 229
11,   5,  62,   8, 178,  73, 187,  85, 230
12, 177,   4,   5, 178, 229,  65,  73, 230
13,  89,  93,  72, 183,  90,  94,  71, 184
14, 183,  65, 229,  89, 184,  66, 231,  90
15,  77,  84,  85, 187,  78,  83,  86, 188
16, 230,  85,  89, 229, 232,  86,  90, 231
17,  73, 187,  85, 230,  74, 188,  86, 232
18, 229,  65,  73, 230, 231,  66,  74, 232
19,  90,  94,  71, 184,  91,  95,  70, 185
20, 184,  66, 231,  90, 185,  67, 233,  91
** ... 124 like lines cut
*Nset, nset=Set-1, generate
   1,  260,    1
*Elset, elset=Set-1, generate
   1,  144,    1
** Section: Section-1
*Solid Section, elset=Set-1, material=Material-1
,
*End Part
**  
*Part, name=Part-2
*Node
      1,   6.94941711,   31.1599998,          26.
      2,   6.94941711,   24.1599998,          26.
      3,   6.94941711,   24.1599998,           0.
      4,   6.94941711,   31.1599998,           0.
      5,   3.97109556, -0.479999989,          26.
      6,   3.97109556, -0.479999989,           0.
      7,  -3.97109556, -0.479999989,          26.
      8,  -3.97109556, -0.479999989,           0.
      9,  -2.21880078,  -3.32820129,           0.
     10,  -2.21880078,  -3.32820129,          26.
     11,  -6.94941711,   24.1599998,          26.
     12,  -6.94941711,   24.1599998,           0.
     13,  -6.94941711,   31.1599998,          26.
     14,  -6.94941711,   31.1599998,           0.
     15,   6.94941711,   24.1599998,   20.7999992
     16,   6.94941711,   24.1599998,   15.6000004
     17,   6.94941711,   24.1599998,   10.3999996
     18,   6.94941711,   24.1599998,   5.19999981
     19,   6.94941711,   31.1599998,   5.19999981
     20,   6.94941711,   31.1599998,   10.3999996
** ... 82 like lines cut
*Element, type=R3D4
1,  1,  2, 15, 22
2, 22, 15, 16, 21
3, 21, 16, 17, 20
4, 20, 17, 18, 19
5, 19, 18,  3,  4
 6,  2, 23, 59, 15
 7, 23, 24, 60, 59
 8, 24, 25, 61, 60
 9, 25, 26, 62, 61
10, 26,  5, 27, 62
11, 15, 59, 63, 16
12, 59, 60, 64, 63
13, 60, 61, 65, 64
14, 61, 62, 66, 65
15, 62, 27, 28, 66
16, 16, 63, 67, 17
17, 63, 64, 68, 67
18, 64, 65, 69, 68
19, 65, 66, 70, 69
20, 66, 28, 29, 70
** ... 60 like lines cut
*End Part
**  
**
** ASSEMBLY
**
*Assembly, name=Assembly
**  
*Instance, name=Part-1-1, part=Part-1
*End Instance
**  
*Instance, name=Part-2-1, part=Part-2
-0.999999566717076,    -1.366227, 51.6720334332829
-0.999999566717076,    -1.366227, 51.6720334332829, -0.999999566717076,    -0.366227, 51.6720334332829,          90.
*End Instance
**  
*Node
      1,          12.,  -1.36622703,   51.6720352
*Nset, nset=Set-3, instance=Part-1-1
   6,  14,  22,  29,  37,  42,  46,  51,  53,  58,  77,  78,  79,  80, 111, 112
 113, 114, 136, 145, 146, 147, 148, 154, 155, 169, 170, 171, 172, 173, 176, 207
 208, 209, 210, 223, 224, 225, 226
*Elset, elset=Set-3, instance=Part-1-1
  75,  78,  81,  84,  87,  90,  93,  96,  99, 102, 105, 108, 111, 113, 114, 117
 119, 120, 123, 125, 126, 129, 131, 132, 135, 137, 138, 141, 144
*Nset, nset=Set-4, instance=Part-1-1
  17,  18,  19,  20,  21,  22,  23,  24,  41,  42,  43,  44,  97,  98, 135, 136
 181, 182, 203, 204
*Nset, nset=Set-4
 1,
*Elset, elset=Set-4, instance=Part-1-1
  31,  32,  33,  34,  35,  36,  37,  38,  39,  40,  41,  42,  73,  74,  75,  76
  77,  78, 109, 110, 111, 112, 113, 114
*Nset, nset=Set-5, instance=Part-1-1
   3,   4,  31,  32,  45,  54,  61, 132, 153, 174
*Elset, elset=Set-5, instance=Part-1-1
   1,   2,   7,   8,  61,  62,  67,  68,  97,  98, 103, 104, 133, 134, 139, 140
*Nset, nset=Set-6
 1,
*Nset, nset=b_Set-1, instance=Part-2-1, generate
   1,  102,    1
*Elset, elset=b_Set-1, instance=Part-2-1, generate
  1,  80,   1
*Nset, nset=_PickedSet12, internal
 1,
*Elset, elset=_CP-1-Part-1-1_S3, internal, instance=Part-1-1
   3,  11,  17,  23,  29,  35,  41,  47,  53,  59,  65,  71,  75,  81,  87,  93
  99, 105
*Elset, elset=_CP-1-Part-1-1_S6, internal, instance=Part-1-1
   5,   9,  15,  21,  27,  33,  39,  45,  51,  57,  63,  69, 111, 117, 123, 129
 135, 141
*Elset, elset=_CP-1-Part-1-1_S5, internal, instance=Part-1-1, generate
 114,  144,    6
*Elset, elset=_CP-1-Part-1-1_S4, internal, instance=Part-1-1, generate
  78,  108,    6
*Surface, type=ELEMENT, name=CP-1-Part-1-1
_CP-1-Part-1-1_S3, S3
_CP-1-Part-1-1_S6, S6
_CP-1-Part-1-1_S4, S4
_CP-1-Part-1-1_S5, S5
*Elset, elset=_CP-1-Part-2-1_SPOS, internal, instance=Part-2-1, generate
  1,  80,   1
*Surface, type=ELEMENT, name=CP-1-Part-2-1
_CP-1-Part-2-1_SPOS, SPOS
** Constraint: Constraint-1
*Rigid Body, ref node=_PickedSet12, elset=b_Set-1
*Elset, elset=__CP-1-Part-2-1-Part-1-1_msm_3_SPOS, internal, instance=Part-2-1, generate
 31,  50,   1
*Surface, type=ELEMENT, name=_CP-1-Part-2-1-Part-1-1_msm_3, internal
__CP-1-Part-2-1-Part-1-1_msm_3_SPOS, SPOS
*End Assembly
** 
** MATERIALS
** 
*Material, name=Material-1
*Elastic
210000., 0.3
** 
** INTERACTION PROPERTIES
** 
*Surface Interaction, name=IntProp-1
1.,
*Friction
0.,
*Surface Behavior, pressure-overclosure=HARD
*Surface Smoothing, name=CP-1-Part-2-1-Part-1-1
, _CP-1-Part-2-1-Part-1-1_msm_3, CIRCUMFERENTIAL, -1., -1.36623, 51.672, 4.33283e-07, -1.36623, 51.672
** 
** INTERACTIONS
** 
** Interaction: CP-1-Part-2-1-Part-1-1
*Contact Pair, interaction=IntProp-1, type=SURFACE TO SURFACE, adjust=0.0, geometric correction=CP-1-Part-2-1-Part-1-1
CP-1-Part-1-1, CP-1-Part-2-1
** ----------------------------------------------------------------
** 
** STEP: Step-1
** 
*Step, name=Step-1, nlgeom=NO
*Static
1., 1., 1e-05, 1.
** 
** BOUNDARY CONDITIONS
** 
** Name: BC-1 Type: Displacement/Rotation
*Boundary
Set-3, 1, 1
** Name: BC-2 Type: Displacement/Rotation
*Boundary
Set-4, 3, 3
** Name: BC-3 Type: Displacement/Rotation
*Boundary
Set-5, 2, 2
** Name: BC-4 Type: Displacement/Rotation
*Boundary
Set-6, 1, 1
Set-6, 2, 2, -1.
Set-6, 3, 3
Set-6, 4, 4
Set-6, 5, 5
Set-6, 6, 6
** 
** OUTPUT REQUESTS
** 
*Restart, write, frequency=0
** 
** FIELD OUTPUT: F-Output-1
** 
*Output, field, variable=PRESELECT
** 
** HISTORY OUTPUT: H-Output-1
** 
*Output, history, variable=PRESELECT
*End Step
