*Heading
** Job name: Job-1-fin-heat-transfer Model name: Model-1
** Generated by: Abaqus/CAE Learning Edition 2025
*Preprint, echo=NO, model=NO, history=NO, contact=NO
**
** PARTS
**
*Part, name=Fin
*Node
      1,  -14.8912506,           0.,           0.
      2,  -19.8912506,           0.,           0.
      3,  -19.8912506,          20.,           0.
      4,  -14.8912506,          20.,           0.
      5,          35.,           0.,           0.
      6,          35.,         -15.,           0.
      7,   2.55437469,         -15.,           0.
      8,  -29.8912506,         -15.,           0.
      9,          25.,           0.,           0.
     10,          20.,           0.,           0.
     11,          15.,           0.,           0.
     12,          10.,           0.,           0.
     13,           5.,           0.,           0.
     14,   0.10874939,           0.,           0.
     15,  -4.89125061,           0.,           0.
     16,  -9.89125061,           0.,           0.
     17,  -29.8912506,           0.,           0.
     18,  -9.89125061,          20.,           0.
     19,  -4.89125061,          20.,           0.
     20,   2.55437469,          20.,           0.
** ... 500 like lines cut
*Element, type=DC3D8
  1,  32,  27,   2,   1, 136, 131, 106, 105
  2,  31,  28,  27,  32, 135, 132, 131, 136
  3,  30,  29,  28,  31, 134, 133, 132, 135
  4,   4,   3,  29,  30, 108, 107, 133, 134
  5,  49,  76,  33,   5, 153, 180, 137, 109
  6,  76,  77,  34,  33, 180, 181, 138, 137
  7,  77,  35,   6,  34, 181, 139, 110, 138
  8,   9,  78,  76,  49, 113, 182, 180, 153
  9,  78,  79,  77,  76, 182, 183, 181, 180
 10,  79,  36,  35,  77, 183, 140, 139, 181
 11,  10,  80,  78,   9, 114, 184, 182, 113
 12,  80,  81,  79,  78, 184, 185, 183, 182
 13,  81,  37,  36,  79, 185, 141, 140, 183
 14,  11,  82,  80,  10, 115, 186, 184, 114
 15,  82,  83,  81,  80, 186, 187, 185, 184
 16,  83,  38,  37,  81, 187, 142, 141, 185
 17,  12,  84,  82,  11, 116, 188, 186, 115
 18,  84,  85,  83,  82, 188, 189, 187, 186
 19,  85,  39,  38,  83, 189, 143, 142, 187
 20,  13,  86,  84,  12, 117, 190, 188, 116
** ... 244 like lines cut
*Nset, nset=Set-1, generate
   1,  520,    1
*Elset, elset=Set-1, generate
   1,  264,    1
** Section: Section-1
*Solid Section, elset=Set-1, material=Material-1
,
*End Part
**  
**
** ASSEMBLY
**
*Assembly, name=Assembly
**  
*Instance, name=Fin-1, part=Fin
*End Instance
**  
*Nset, nset=Set-1, instance=Fin-1
   6,   7,   8,  35,  36,  37,  38,  39,  40,  41,  42,  43,  44,  45,  46, 110
 111, 112, 139, 140, 141, 142, 143, 144, 145, 146, 147, 148, 149, 150, 214, 215
 216, 243, 244, 245, 246, 247, 248, 249, 250, 251, 252, 253, 254, 318, 319, 320
 347, 348, 349, 350, 351, 352, 353, 354, 355, 356, 357, 358, 422, 423, 424, 451
 452, 453, 454, 455, 456, 457, 458, 459, 460, 461, 462
*Elset, elset=Set-1, instance=Fin-1
   7,  10,  13,  16,  19,  22,  25,  28,  31,  34,  37,  40,  43,  46,  73,  76
  79,  82,  85,  88,  91,  94,  97, 100, 103, 106, 109, 112, 139, 142, 145, 148
 151, 154, 157, 160, 163, 166, 169, 172, 175, 178, 205, 208, 211, 214, 217, 220
 223, 226, 229, 232, 235, 238, 241, 244
*Nset, nset=Set-2, instance=Fin-1, generate
   1,  520,    1
*Elset, elset=Set-2, instance=Fin-1, generate
   1,  264,    1
*End Assembly
** 
** MATERIALS
** 
*Material, name=Material-1
*Conductivity
44.,
** ----------------------------------------------------------------
** 
** STEP: Step-1
** 
*Step, name=Step-1, nlgeom=NO
*Heat Transfer, steady state, deltmx=0.
1., 1., 1e-05, 1., 
** 
** BOUNDARY CONDITIONS
** 
** Name: BC-1 Type: Temperature
*Boundary
Set-1, 11, 11, 400.
** 
** LOADS
** 
** Name: Load-1   Type: Body heat flux
*Dflux
Set-2, BF, 20.
** 
** OUTPUT REQUESTS
** 
*Restart, write, frequency=0
** 
** FIELD OUTPUT: F-Output-1
** 
*Output, field, variable=PRESELECT
** 
** HISTORY OUTPUT: H-Output-1
** 
*Output, history
*Radiation Output
FTEMP, 
*End Step
