*Heading
** Job name: Job-1-HeatConductionFlipChip Model name: Model-1
** Generated by: Abaqus/CAE Learning Edition 2025
*Preprint, echo=NO, model=NO, history=NO, contact=NO
**
** PARTS
**
*Part, name=FlipChip
*Node
      1,  -0.67272079,   0.67272079,           1.
      2,  0.927279234, -0.677279234,           1.
      3,        -1.25,         1.25,           1.
      4,        -1.25,        -1.25,           1.
      5,         1.25,        -1.25,           1.
      6,         1.25,         1.25,           1.
      7,         -2.5,          2.5,           1.
      8,         -2.5,         -2.5,           1.
      9,          2.5,         -2.5,           1.
     10,          2.5,          2.5,           1.
     11,          2.5,         -2.5,           0.
     12,         -2.5,         -2.5,           0.
     13,         -2.5,          2.5,           0.
     14,          2.5,          2.5,           0.
     15,         1.25,        -1.25,         1.12
     16,        -1.25,        -1.25,         1.12
     17,        -1.25,         1.25,         1.12
     18,         1.25,         1.25,         1.12
     19,  0.927279234, -0.677279234,         1.12
     20,  -0.67272079,   0.67272079,         1.12
** ... 456 like lines cut
*Element, type=DC3D8
  1,  26, 109,  28,  27, 203, 224, 205, 204
  2,  30,  29,  28, 109, 207, 206, 205, 224
  3,   1, 109,  26,  25, 196, 224, 203, 202
  4,  30, 109,   1,  31, 207, 224, 196, 208
  5,   2, 110,  33,  32, 197, 225, 210, 209
  6,  37, 110,   2,  38, 214, 225, 197, 215
  7,  35,  34,  33, 110, 212, 211, 210, 225
  8,  35, 110,  37,  36, 212, 225, 214, 213
  9, 178, 125, 120, 139, 293, 240, 235, 254
 10,  33,  34, 119, 160, 210, 211, 234, 275
 11, 139, 120,  38,   2, 254, 235, 215, 197
 12,  38, 120, 125, 114, 215, 235, 240, 229
 13, 158, 115,  36,  37, 273, 230, 213, 214
 14, 142, 136, 145, 166, 257, 251, 260, 281
 15, 166, 145, 151, 148, 281, 260, 266, 263
 16,  31, 131, 121,  30, 208, 246, 236, 207
 17, 140,  39, 121, 131, 255, 216, 236, 246
 18, 134, 165, 123,  28, 249, 280, 238, 205
 19, 123, 164,  27,  28, 238, 279, 204, 205
 20, 134, 171, 172, 165, 249, 286, 287, 280
** ... 288 like lines cut
*Nset, nset=Set-1
   1,   2,   3,   4,   5,   6,   7,   8,   9,  10,  11,  12,  13,  14,  25,  26
  27,  28,  29,  30,  31,  32,  33,  34,  35,  36,  37,  38,  39,  40,  41,  42
  43,  44,  45,  46,  47,  48,  49,  50,  51,  52,  53,  54,  55,  56,  57,  58
  59,  60,  61,  62,  63,  64,  65,  66,  67,  68,  69,  70,  71,  72,  73,  74
  75,  76,  77,  78, 109, 110, 111, 112, 113, 114, 115, 116, 117, 118, 119, 120
 121, 122, 123, 124, 125, 126, 127, 128, 129, 130, 131, 132, 133, 134, 135, 136
 137, 138, 139, 140, 141, 142, 143, 144, 145, 146, 147, 148, 149, 150, 151, 152
 153, 154, 155, 156, 157, 158, 159, 160, 161, 162, 163, 164, 165, 166, 167, 168
 169, 170, 171, 172, 173, 174, 175, 176, 177, 178, 179, 180, 181, 182, 183, 184
 185, 186, 187, 188, 189, 190, 191, 192, 193, 194, 195, 196, 197, 198, 199, 200
 201, 202, 203, 204, 205, 206, 207, 208, 209, 210, 211, 212, 213, 214, 215, 216
 217, 218, 219, 220, 221, 222, 223, 224, 225, 226, 227, 228, 229, 230, 231, 232
 233, 234, 235, 236, 237, 238, 239, 240, 241, 242, 243, 244, 245, 246, 247, 248
 249, 250, 251, 252, 253, 254, 255, 256, 257, 258, 259, 260, 261, 262, 263, 264
 265, 266, 267, 268, 269, 270, 271, 272, 273, 274, 275, 276, 277, 278, 279, 280
 281, 282, 283, 284, 285, 286, 287, 288, 289, 290, 291, 292, 293, 294, 295, 296
 297, 298, 299, 300, 301, 302, 303, 304, 305, 306, 307, 308, 309, 310
*Elset, elset=Set-1, generate
   1,  124,    1
*Nset, nset=Set-2
   1,   2,   3,   4,   5,   6,  15,  16,  17,  18,  19,  20,  25,  26,  27,  28
  29,  30,  31,  32,  33,  34,  35,  36,  37,  38,  39,  40,  41,  42,  43,  44
  45,  46,  79,  80,  81,  82,  83,  84,  85,  86,  87,  88,  89,  90,  91,  92
  93,  94,  95,  96,  97,  98,  99, 100, 111, 112, 113, 114, 115, 116, 117, 118
 119, 120, 121, 122, 123, 124, 125, 126, 127, 128, 129, 130, 131, 132, 133, 134
 135, 136, 137, 138, 139, 140, 141, 142, 143, 144, 145, 146, 147, 148, 149, 150
 151, 152, 153, 154, 155, 156, 157, 158, 159, 160, 161, 162, 163, 164, 165, 166
 167, 168, 169, 170, 171, 172, 173, 174, 175, 176, 177, 178, 179, 180, 181, 182
 183, 311, 312, 313, 314, 315, 316, 317, 318, 319, 320, 321, 322, 323, 324, 325
 326, 327, 328, 329, 330, 331, 332, 333, 334, 335, 336, 337, 338, 339, 340, 341
 342, 343, 344, 345, 346, 347, 348, 349, 350, 351, 352, 353, 354, 355, 356, 357
 358, 359, 360, 361, 362, 363, 364, 365, 366, 367, 368, 369, 370, 371, 372, 373
 374, 375, 376, 377, 378, 379, 380, 381, 382, 383
*Elset, elset=Set-2, generate
 125,  212,    1
*Nset, nset=Set-3
  15,  16,  17,  18,  19,  20,  21,  22,  23,  24,  79,  80,  81,  82,  83,  84
  85,  86,  87,  88,  89,  90,  91,  92,  93,  94,  95,  96,  97,  98,  99, 100
 101, 102, 103, 104, 105, 106, 107, 108, 311, 312, 313, 314, 315, 316, 317, 318
 319, 320, 321, 322, 323, 324, 325, 326, 327, 328, 329, 330, 331, 332, 333, 334
 335, 336, 337, 338, 339, 340, 341, 342, 343, 344, 345, 346, 347, 348, 349, 350
 351, 352, 353, 354, 355, 356, 357, 358, 359, 360, 361, 362, 363, 364, 365, 366
 367, 368, 369, 370, 371, 372, 373, 374, 375, 376, 377, 378, 379, 380, 381, 382
 383, 384, 385, 386, 387, 388, 389, 390, 391, 392, 393, 394, 395, 396, 397, 398
 399, 400, 401, 402, 403, 404, 405, 406, 407, 408, 409, 410, 411, 412, 413, 414
 415, 416, 417, 418, 419, 420, 421, 422, 423, 424, 425, 426, 427, 428, 429, 430
 431, 432, 433, 434, 435, 436, 437, 438, 439, 440, 441, 442, 443, 444, 445, 446
 447, 448, 449, 450, 451, 452, 453, 454, 455, 456, 457, 458, 459, 460, 461, 462
 463, 464, 465, 466, 467, 468, 469, 470, 471, 472, 473, 474, 475, 476
*Elset, elset=Set-3, generate
 213,  308,    1
** Section: HSsection
*Solid Section, elset=Set-1, material=CuHS
,
** Section: STIMsection
*Solid Section, elset=Set-2, material=STIM
,
** Section: chipsection
*Solid Section, elset=Set-3, material=SiliconChip
,
*End Part
**  
**
** ASSEMBLY
**
*Assembly, name=Assembly
**  
*Instance, name=FlipChip-1, part=FlipChip
*End Instance
**  
*Nset, nset=Set-1, instance=FlipChip-1
  21,  22,  23,  24, 101, 102, 103, 104, 105, 106, 107, 108, 386, 387, 388, 389
 390, 391, 392, 393, 394, 395, 396, 397, 398, 399, 400, 401, 402, 403, 404, 405
 406, 407, 408, 409, 410, 411, 412, 413, 414, 415, 416, 417, 418, 419, 420, 421
 422, 423, 424, 425, 426, 427, 428, 429, 430, 431, 432, 433, 434, 435, 436, 437
 438, 439, 440, 441, 442, 443, 444, 445, 446, 447, 448, 449, 450, 451, 452, 453
 454, 455, 456, 457, 458, 459, 460, 461, 462, 463, 464, 465, 466, 467, 468, 469
 470, 471, 472, 473, 474, 475, 476
*Elset, elset=Set-1, instance=FlipChip-1, generate
 213,  308,    1
*Nset, nset=Set-2, instance=FlipChip-1
  11,  12,  13,  14,  63,  64,  65,  66,  67,  68,  69,  70,  71,  72,  73,  74
  75,  76,  77,  78, 196, 197, 198, 199, 200, 201, 202, 203, 204, 205, 206, 207
 208, 209, 210, 211, 212, 213, 214, 215, 216, 217, 218, 219, 220, 221, 222, 223
 224, 225, 226, 227, 228, 229, 230, 231, 232, 233, 234, 235, 236, 237, 238, 239
 240, 241, 242, 243, 244, 245, 246, 247, 248, 249, 250, 251, 252, 253, 254, 255
 256, 257, 258, 259, 260, 261, 262, 263, 264, 265, 266, 267, 268, 269, 270, 271
 272, 273, 274, 275, 276, 277, 278, 279, 280, 281, 282, 283, 284, 285, 286, 287
 288, 289, 290, 291, 292, 293, 294, 295, 296, 297, 298, 299, 300, 301, 302, 303
 304, 305, 306, 307, 308, 309, 310
*Elset, elset=Set-2, instance=FlipChip-1, generate
   1,  124,    1
*End Assembly
** 
** MATERIALS
** 
*Material, name=CuHS
*Conductivity
 0.401,
*Density
 8.96e-06,
*Specific Heat
380.,
*Material, name=STIM
*Conductivity
 0.0578,
*Density
 8.41e-06,
*Specific Heat
 8.41e-06,
*Material, name=SiliconChip
*Conductivity
 0.11,
*Density
 2.32e-06,
*Specific Heat
700.,
** ----------------------------------------------------------------
** 
** STEP: conduction
** 
*Step, name=conduction, nlgeom=NO
*Heat Transfer, end=PERIOD, deltmx=300.
1., 1., 1e-05, 1., 
** 
** BOUNDARY CONDITIONS
** 
** Name: HeatSinking Type: Temperature
*Boundary
Set-2, 11, 11, 20.
** Name: TemperatureSource Type: Temperature
*Boundary
Set-1, 11, 11, 85.
** 
** OUTPUT REQUESTS
** 
*Restart, write, frequency=0
** 
** FIELD OUTPUT: F-Output-1
** 
*Output, field, variable=PRESELECT
** 
** HISTORY OUTPUT: H-Output-1
** 
*Output, history
*Radiation Output, variable=ALL
*Contact Output
HFLA, HTL, HTLA, SJD, SJDA, SJDE, SJDEA, SJDET, SJDETA, SJDR, SJDRA, SJDRT, SJDRTA, SJDT, SJDTA, WEIGHT
*End Step
